[root]
type=Root
children=system
eventq_index=0
full_system=false
sim_quantum=0
time_sync_enable=false
time_sync_period=100000000000
time_sync_spin_threshold=100000000

[system]
type=System
children=clk_domain cpu cpu_clk_domain cpu_voltage_domain dvfs_handler mem_ctrls ruby sys_port_proxy voltage_domain
boot_osflags=a
brg_fast_forward=false
cache_line_size=64
clk_domain=system.clk_domain
default_p_state=UNDEFINED
eventq_index=0
exit_on_work_items=false
init_param=0
kernel=
kernel_addr_check=true
kernel_extras=
load_addr_mask=18446744073709551615
load_offset=0
mem_mode=timing
mem_ranges=0:4294967295:0:0:0:0
memories=system.mem_ctrls
mmap_using_noreserve=false
multi_thread=false
num_work_ids=16
p_state_clk_gate_bins=20
p_state_clk_gate_max=1000000000000
p_state_clk_gate_min=1000
power_model=
readfile=
symbolfile=
thermal_components=
thermal_model=Null
work_begin_ckpt_count=0
work_begin_cpu_id_exit=-1
work_begin_exit_count=0
work_cpus_ckpt_count=0
work_end_ckpt_count=0
work_end_exit_count=0
work_item_id=-1
system_port=system.sys_port_proxy.slave[0]

[system.clk_domain]
type=SrcClockDomain
clock=1000
domain_id=-1
eventq_index=0
init_perf_level=0
voltage_domain=system.voltage_domain

[system.cpu]
type=IOCPU
children=branchPred dtb interrupts isa itb tracer workload
activity_trace=false
branchPred=system.cpu.branchPred
checker=Null
clk_domain=system.cpu_clk_domain
commitBufferSize=2
commitWidth=1
cpu_id=0
decodeBufferSize=2
decodeWidth=1
default_p_state=UNDEFINED
divOpLatency=10
do_checkpoint_insts=true
do_quiesce=true
do_statistics_insts=true
dtb=system.cpu.dtb
eventq_index=0
fetchWidth=1
fpAluOpLatency=3
fpMulOpLatency=5
function_trace=false
function_trace_start=0
iewBufferSize=2
intAluOpLatency=1
intMulOpLatency=3
interrupts=system.cpu.interrupts
isa=system.cpu.isa
issueWidth=1
itb=system.cpu.itb
max_insts_all_threads=0
max_insts_any_thread=0
max_loads_all_threads=0
max_loads_any_thread=0
numDcachePorts=1
numIcachePorts=1
numLoadQueueEntries=2
numPhysCCRegs=0
numPhysFloatRegs=48
numPhysIntRegs=48
numPhysVecPredRegs=32
numPhysVecRegs=256
numROBEntries=8
numStoreQueueEntries=2
numThreads=1
p_state_clk_gate_bins=20
p_state_clk_gate_max=1000000000000
p_state_clk_gate_min=1000
power_gating_on_idle=false
power_model=
profile=0
progress_interval=0
pwr_gating_latency=300
renameBufferSize=2
renameWidth=1
simpoint_start_insts=
socket_id=0
switched_out=false
syscallRetryLatency=10000
system=system
tracer=system.cpu.tracer
wait_for_remote_gdb=false
workload=system.cpu.workload
writebackWidth=1
dcache_port=system.ruby.l1d_cntrl0.tca_sequencer.slave[0]
icache_port=system.ruby.l1i_cntrl0.tca_sequencer.slave[0]

[system.cpu.branchPred]
type=LocalBP
BTBEntries=4096
BTBTagSize=16
RASSize=16
eventq_index=0
indirectHashGHR=true
indirectHashTargets=true
indirectPathLength=3
indirectSets=256
indirectTagSize=16
indirectWays=2
instShiftAmt=2
localCtrBits=2
localPredictorSize=2048
numThreads=1
useIndirect=true

[system.cpu.dtb]
type=RiscvTLB
eventq_index=0
size=64

[system.cpu.interrupts]
type=RiscvInterrupts
eventq_index=0

[system.cpu.isa]
type=RiscvISA
eventq_index=0

[system.cpu.itb]
type=RiscvTLB
eventq_index=0
size=64

[system.cpu.tracer]
type=ExeTracer
eventq_index=0

[system.cpu.workload]
type=Process
cmd=/home/ct535/project/tca/benchmark/riscv-asm/build/lw
cwd=/home/ct535/project/tca/alloy-gem5
drivers=
egid=100
env=
errout=cerr
euid=100
eventq_index=0
executable=/home/ct535/project/tca/benchmark/riscv-asm/build/lw
gid=100
input=cin
kvmInSE=false
maxStackSize=67108864
output=cout
pgid=100
pid=100
ppid=0
simpoint=0
system=system
uid=100
useArchPT=false

[system.cpu_clk_domain]
type=SrcClockDomain
clock=500
domain_id=-1
eventq_index=0
init_perf_level=0
voltage_domain=system.cpu_voltage_domain

[system.cpu_voltage_domain]
type=VoltageDomain
eventq_index=0
voltage=1.0

[system.dvfs_handler]
type=DVFSHandler
domains=
enable=false
eventq_index=0
sys_clk_domain=system.clk_domain
transition_latency=100000000

[system.mem_ctrls]
type=DRAMCtrl
IDD0=0.055
IDD02=0.0
IDD2N=0.032
IDD2N2=0.0
IDD2P0=0.0
IDD2P02=0.0
IDD2P1=0.032
IDD2P12=0.0
IDD3N=0.038
IDD3N2=0.0
IDD3P0=0.0
IDD3P02=0.0
IDD3P1=0.038
IDD3P12=0.0
IDD4R=0.157
IDD4R2=0.0
IDD4W=0.125
IDD4W2=0.0
IDD5=0.235
IDD52=0.0
IDD6=0.02
IDD62=0.0
VDD=1.5
VDD2=0.0
activation_limit=4
addr_mapping=RoRaBaCoCh
bank_groups_per_rank=0
banks_per_rank=8
burst_length=8
channels=1
clk_domain=system.clk_domain
conf_table_reported=true
default_p_state=UNDEFINED
device_bus_width=8
device_rowbuffer_size=1024
device_size=536870912
devices_per_rank=8
dll=true
eventq_index=0
in_addr_map=true
kvm_map=true
max_accesses_per_row=16
mem_sched_policy=frfcfs
min_writes_per_switch=16
null=false
p_state_clk_gate_bins=20
p_state_clk_gate_max=1000000000000
p_state_clk_gate_min=1000
page_policy=open_adaptive
power_model=
qos_masters=               
qos_policy=Null
qos_priorities=1
qos_priority_escalation=false
qos_q_policy=fifo
qos_syncro_scheduler=false
qos_turnaround_policy=Null
range=0:4294967295:5:19:0:0
ranks_per_channel=2
read_buffer_size=32
static_backend_latency=10000
static_frontend_latency=10000
tBURST=5000
tCCD_L=0
tCCD_L_WR=0
tCK=1250
tCL=13750
tCS=2500
tRAS=35000
tRCD=13750
tREFI=7800000
tRFC=260000
tRP=13750
tRRD=6000
tRRD_L=0
tRTP=7500
tRTW=2500
tWR=15000
tWTR=7500
tXAW=30000
tXP=6000
tXPDLL=0
tXS=270000
tXSDLL=0
write_buffer_size=64
write_high_thresh_perc=85
write_low_thresh_perc=50
port=system.ruby.dir_cntrl0.memory

[system.ruby]
type=RubySystem
children=clk_domain dir_cntrl0 l1d_cntrl0 l1i_cntrl0 l2_cntrl0 memctrl_clk_domain network
access_backing_store=false
all_instructions=false
block_size_bytes=64
clk_domain=system.ruby.clk_domain
default_p_state=UNDEFINED
eventq_index=0
hot_lines=false
memory_size_bits=48
num_of_sequencers=2
number_of_virtual_networks=3
p_state_clk_gate_bins=20
p_state_clk_gate_max=1000000000000
p_state_clk_gate_min=1000
phys_mem=Null
power_model=
randomization=false

[system.ruby.clk_domain]
type=SrcClockDomain
clock=500
domain_id=-1
eventq_index=0
init_perf_level=0
voltage_domain=system.voltage_domain

[system.ruby.dir_cntrl0]
type=Directory_Controller
children=directory requestToDir responseFromDir responseFromMemory responseToDir
addr_ranges=0:4294967295:5:19:0:0
buffer_size=0
clk_domain=system.ruby.clk_domain
cluster_id=0
default_p_state=UNDEFINED
directory=system.ruby.dir_cntrl0.directory
directory_latency=6
eventq_index=0
number_of_TBEs=256
p_state_clk_gate_bins=20
p_state_clk_gate_max=1000000000000
p_state_clk_gate_min=1000
power_model=
recycle_latency=10
requestToDir=system.ruby.dir_cntrl0.requestToDir
responseFromDir=system.ruby.dir_cntrl0.responseFromDir
responseFromMemory=system.ruby.dir_cntrl0.responseFromMemory
responseToDir=system.ruby.dir_cntrl0.responseToDir
ruby_system=system.ruby
system=system
to_mem_ctrl_latency=1
transitions_per_cycle=32
version=0
memory=system.mem_ctrls.port

[system.ruby.dir_cntrl0.directory]
type=RubyDirectoryMemory
addr_ranges=0:4294967295:5:19:0:0
eventq_index=0

[system.ruby.dir_cntrl0.requestToDir]
type=MessageBuffer
buffer_size=0
eventq_index=0
ordered=false
randomization=false
slave=system.ruby.network.master[7]

[system.ruby.dir_cntrl0.responseFromDir]
type=MessageBuffer
buffer_size=0
eventq_index=0
ordered=false
randomization=false
master=system.ruby.network.slave[9]

[system.ruby.dir_cntrl0.responseFromMemory]
type=MessageBuffer
buffer_size=0
eventq_index=0
ordered=false
randomization=false

[system.ruby.dir_cntrl0.responseToDir]
type=MessageBuffer
buffer_size=0
eventq_index=0
ordered=false
randomization=false
slave=system.ruby.network.master[8]

[system.ruby.l1d_cntrl0]
type=L1Cache_Controller
children=L1cache mandatoryQueue requestFromL1Cache requestToL1Cache responseFromL1Cache responseToL1Cache tca_sequencer triggerQueue unblockFromL1Cache
L1cache=system.ruby.l1d_cntrl0.L1cache
addr_ranges=0:18446744073709551615:0:0:0:0
buffer_size=0
clk_domain=system.cpu_clk_domain
cluster_id=0
default_p_state=UNDEFINED
eventq_index=0
l1_request_latency=2
l1_response_latency=2
l2_select_num_bits=0
mandatoryQueue=system.ruby.l1d_cntrl0.mandatoryQueue
number_of_TBEs=256
p_state_clk_gate_bins=20
p_state_clk_gate_max=1000000000000
p_state_clk_gate_min=1000
power_model=
recycle_latency=10
requestFromL1Cache=system.ruby.l1d_cntrl0.requestFromL1Cache
requestToL1Cache=system.ruby.l1d_cntrl0.requestToL1Cache
responseFromL1Cache=system.ruby.l1d_cntrl0.responseFromL1Cache
responseToL1Cache=system.ruby.l1d_cntrl0.responseToL1Cache
ruby_system=system.ruby
send_evictions=false
system=system
tca_sequencer=system.ruby.l1d_cntrl0.tca_sequencer
to_l2_latency=1
transitions_per_cycle=1
unblockFromL1Cache=system.ruby.l1d_cntrl0.unblockFromL1Cache
version=1

[system.ruby.l1d_cntrl0.L1cache]
type=RubyCache
children=replacement_policy
assoc=2
block_size=0
dataAccessLatency=1
dataArrayBanks=1
eventq_index=0
is_icache=false
replacement_policy=system.ruby.l1d_cntrl0.L1cache.replacement_policy
resourceStalls=false
ruby_system=system.ruby
size=4096
start_index_bit=6
tagAccessLatency=1
tagArrayBanks=1

[system.ruby.l1d_cntrl0.L1cache.replacement_policy]
type=PseudoLRUReplacementPolicy
assoc=2
block_size=64
eventq_index=0
size=4096

[system.ruby.l1d_cntrl0.mandatoryQueue]
type=MessageBuffer
buffer_size=0
eventq_index=0
ordered=false
randomization=false

[system.ruby.l1d_cntrl0.requestFromL1Cache]
type=MessageBuffer
buffer_size=0
eventq_index=0
ordered=false
randomization=false
master=system.ruby.network.slave[3]

[system.ruby.l1d_cntrl0.requestToL1Cache]
type=MessageBuffer
buffer_size=0
eventq_index=0
ordered=false
randomization=false
slave=system.ruby.network.master[2]

[system.ruby.l1d_cntrl0.responseFromL1Cache]
type=MessageBuffer
buffer_size=0
eventq_index=0
ordered=false
randomization=false
master=system.ruby.network.slave[4]

[system.ruby.l1d_cntrl0.responseToL1Cache]
type=MessageBuffer
buffer_size=0
eventq_index=0
ordered=false
randomization=false
slave=system.ruby.network.master[3]

[system.ruby.l1d_cntrl0.tca_sequencer]
type=TCASequencer
cache=system.ruby.l1d_cntrl0.L1cache
cache_hit_latency=1
clk_domain=system.cpu_clk_domain
deadlock_threshold=500000
default_p_state=UNDEFINED
eventq_index=0
is_cpu_sequencer=true
no_retry_on_stall=false
num_cache_ports=1
p_state_clk_gate_bins=20
p_state_clk_gate_max=1000000000000
p_state_clk_gate_min=1000
power_model=
primary_mshr_size=4
ruby_system=system.ruby
secondary_mshr_size=4
support_data_reqs=true
support_inst_reqs=true
system=system
using_ruby_tester=false
version=1
slave=system.cpu.dcache_port

[system.ruby.l1d_cntrl0.triggerQueue]
type=MessageBuffer
buffer_size=0
eventq_index=0
ordered=false
randomization=false

[system.ruby.l1d_cntrl0.unblockFromL1Cache]
type=MessageBuffer
buffer_size=0
eventq_index=0
ordered=false
randomization=false
master=system.ruby.network.slave[5]

[system.ruby.l1i_cntrl0]
type=L1Cache_Controller
children=L1cache mandatoryQueue requestFromL1Cache requestToL1Cache responseFromL1Cache responseToL1Cache tca_sequencer triggerQueue unblockFromL1Cache
L1cache=system.ruby.l1i_cntrl0.L1cache
addr_ranges=0:18446744073709551615:0:0:0:0
buffer_size=0
clk_domain=system.cpu_clk_domain
cluster_id=0
default_p_state=UNDEFINED
eventq_index=0
l1_request_latency=2
l1_response_latency=2
l2_select_num_bits=0
mandatoryQueue=system.ruby.l1i_cntrl0.mandatoryQueue
number_of_TBEs=256
p_state_clk_gate_bins=20
p_state_clk_gate_max=1000000000000
p_state_clk_gate_min=1000
power_model=
recycle_latency=10
requestFromL1Cache=system.ruby.l1i_cntrl0.requestFromL1Cache
requestToL1Cache=system.ruby.l1i_cntrl0.requestToL1Cache
responseFromL1Cache=system.ruby.l1i_cntrl0.responseFromL1Cache
responseToL1Cache=system.ruby.l1i_cntrl0.responseToL1Cache
ruby_system=system.ruby
send_evictions=false
system=system
tca_sequencer=system.ruby.l1i_cntrl0.tca_sequencer
to_l2_latency=1
transitions_per_cycle=1
unblockFromL1Cache=system.ruby.l1i_cntrl0.unblockFromL1Cache
version=0

[system.ruby.l1i_cntrl0.L1cache]
type=RubyCache
children=replacement_policy
assoc=2
block_size=0
dataAccessLatency=1
dataArrayBanks=1
eventq_index=0
is_icache=true
replacement_policy=system.ruby.l1i_cntrl0.L1cache.replacement_policy
resourceStalls=false
ruby_system=system.ruby
size=4096
start_index_bit=6
tagAccessLatency=1
tagArrayBanks=1

[system.ruby.l1i_cntrl0.L1cache.replacement_policy]
type=PseudoLRUReplacementPolicy
assoc=2
block_size=64
eventq_index=0
size=4096

[system.ruby.l1i_cntrl0.mandatoryQueue]
type=MessageBuffer
buffer_size=0
eventq_index=0
ordered=false
randomization=false

[system.ruby.l1i_cntrl0.requestFromL1Cache]
type=MessageBuffer
buffer_size=0
eventq_index=0
ordered=false
randomization=false
master=system.ruby.network.slave[0]

[system.ruby.l1i_cntrl0.requestToL1Cache]
type=MessageBuffer
buffer_size=0
eventq_index=0
ordered=false
randomization=false
slave=system.ruby.network.master[0]

[system.ruby.l1i_cntrl0.responseFromL1Cache]
type=MessageBuffer
buffer_size=0
eventq_index=0
ordered=false
randomization=false
master=system.ruby.network.slave[1]

[system.ruby.l1i_cntrl0.responseToL1Cache]
type=MessageBuffer
buffer_size=0
eventq_index=0
ordered=false
randomization=false
slave=system.ruby.network.master[1]

[system.ruby.l1i_cntrl0.tca_sequencer]
type=TCASequencer
cache=system.ruby.l1i_cntrl0.L1cache
cache_hit_latency=1
clk_domain=system.cpu_clk_domain
deadlock_threshold=500000
default_p_state=UNDEFINED
eventq_index=0
is_cpu_sequencer=true
no_retry_on_stall=false
num_cache_ports=1
p_state_clk_gate_bins=20
p_state_clk_gate_max=1000000000000
p_state_clk_gate_min=1000
power_model=
primary_mshr_size=4
ruby_system=system.ruby
secondary_mshr_size=4
support_data_reqs=true
support_inst_reqs=true
system=system
using_ruby_tester=false
version=0
slave=system.cpu.icache_port

[system.ruby.l1i_cntrl0.triggerQueue]
type=MessageBuffer
buffer_size=0
eventq_index=0
ordered=false
randomization=false

[system.ruby.l1i_cntrl0.unblockFromL1Cache]
type=MessageBuffer
buffer_size=0
eventq_index=0
ordered=false
randomization=false
master=system.ruby.network.slave[2]

[system.ruby.l2_cntrl0]
type=L2Cache_Controller
children=DirRequestFromL2Cache L1RequestFromL2Cache L1RequestToL2Cache L2cache responseFromL2Cache responseToL2Cache unblockToL2Cache
DirRequestFromL2Cache=system.ruby.l2_cntrl0.DirRequestFromL2Cache
L1RequestFromL2Cache=system.ruby.l2_cntrl0.L1RequestFromL2Cache
L1RequestToL2Cache=system.ruby.l2_cntrl0.L1RequestToL2Cache
L2cache=system.ruby.l2_cntrl0.L2cache
addr_ranges=0:18446744073709551615:0:0:0:0
buffer_size=0
clk_domain=system.ruby.clk_domain
cluster_id=0
default_p_state=UNDEFINED
eventq_index=0
l2_request_latency=2
l2_response_latency=2
number_of_TBEs=256
p_state_clk_gate_bins=20
p_state_clk_gate_max=1000000000000
p_state_clk_gate_min=1000
power_model=
recycle_latency=10
responseFromL2Cache=system.ruby.l2_cntrl0.responseFromL2Cache
responseToL2Cache=system.ruby.l2_cntrl0.responseToL2Cache
ruby_system=system.ruby
system=system
to_l1_latency=1
transitions_per_cycle=4
unblockToL2Cache=system.ruby.l2_cntrl0.unblockToL2Cache
version=0

[system.ruby.l2_cntrl0.DirRequestFromL2Cache]
type=MessageBuffer
buffer_size=0
eventq_index=0
ordered=false
randomization=false
master=system.ruby.network.slave[6]

[system.ruby.l2_cntrl0.L1RequestFromL2Cache]
type=MessageBuffer
buffer_size=0
eventq_index=0
ordered=false
randomization=false
master=system.ruby.network.slave[7]

[system.ruby.l2_cntrl0.L1RequestToL2Cache]
type=MessageBuffer
buffer_size=0
eventq_index=0
ordered=false
randomization=false
slave=system.ruby.network.master[5]

[system.ruby.l2_cntrl0.L2cache]
type=RubyCache
children=replacement_policy
assoc=8
block_size=0
dataAccessLatency=1
dataArrayBanks=1
eventq_index=0
is_icache=false
replacement_policy=system.ruby.l2_cntrl0.L2cache.replacement_policy
resourceStalls=false
ruby_system=system.ruby
size=2097152
start_index_bit=6
tagAccessLatency=1
tagArrayBanks=1

[system.ruby.l2_cntrl0.L2cache.replacement_policy]
type=PseudoLRUReplacementPolicy
assoc=8
block_size=64
eventq_index=0
size=2097152

[system.ruby.l2_cntrl0.responseFromL2Cache]
type=MessageBuffer
buffer_size=0
eventq_index=0
ordered=false
randomization=false
master=system.ruby.network.slave[8]

[system.ruby.l2_cntrl0.responseToL2Cache]
type=MessageBuffer
buffer_size=0
eventq_index=0
ordered=false
randomization=false
slave=system.ruby.network.master[6]

[system.ruby.l2_cntrl0.unblockToL2Cache]
type=MessageBuffer
buffer_size=0
eventq_index=0
ordered=false
randomization=false
slave=system.ruby.network.master[4]

[system.ruby.memctrl_clk_domain]
type=DerivedClockDomain
clk_divider=3
clk_domain=system.ruby.clk_domain
eventq_index=0

[system.ruby.network]
type=SimpleNetwork
children=ext_links0 ext_links1 ext_links2 ext_links3 int_link_buffers00 int_link_buffers01 int_link_buffers02 int_link_buffers03 int_link_buffers04 int_link_buffers05 int_link_buffers06 int_link_buffers07 int_link_buffers08 int_link_buffers09 int_link_buffers10 int_link_buffers11 int_link_buffers12 int_link_buffers13 int_link_buffers14 int_link_buffers15 int_link_buffers16 int_link_buffers17 int_link_buffers18 int_link_buffers19 int_link_buffers20 int_link_buffers21 int_link_buffers22 int_link_buffers23 int_link_buffers24 int_link_buffers25 int_link_buffers26 int_link_buffers27 int_link_buffers28 int_link_buffers29 int_link_buffers30 int_link_buffers31 int_link_buffers32 int_link_buffers33 int_link_buffers34 int_link_buffers35 int_links0 int_links1 int_links2 int_links3 int_links4 int_links5 routers0 routers1 routers2 routers3
adaptive_routing=false
buffer_size=0
clk_domain=system.ruby.clk_domain
control_msg_size=8
data_word_size=4
default_p_state=UNDEFINED
endpoint_bandwidth=1000
eventq_index=0
ext_links=system.ruby.network.ext_links0 system.ruby.network.ext_links1 system.ruby.network.ext_links2 system.ruby.network.ext_links3
int_link_buffers=system.ruby.network.int_link_buffers00 system.ruby.network.int_link_buffers01 system.ruby.network.int_link_buffers02 system.ruby.network.int_link_buffers03 system.ruby.network.int_link_buffers04 system.ruby.network.int_link_buffers05 system.ruby.network.int_link_buffers06 system.ruby.network.int_link_buffers07 system.ruby.network.int_link_buffers08 system.ruby.network.int_link_buffers09 system.ruby.network.int_link_buffers10 system.ruby.network.int_link_buffers11 system.ruby.network.int_link_buffers12 system.ruby.network.int_link_buffers13 system.ruby.network.int_link_buffers14 system.ruby.network.int_link_buffers15 system.ruby.network.int_link_buffers16 system.ruby.network.int_link_buffers17 system.ruby.network.int_link_buffers18 system.ruby.network.int_link_buffers19 system.ruby.network.int_link_buffers20 system.ruby.network.int_link_buffers21 system.ruby.network.int_link_buffers22 system.ruby.network.int_link_buffers23 system.ruby.network.int_link_buffers24 system.ruby.network.int_link_buffers25 system.ruby.network.int_link_buffers26 system.ruby.network.int_link_buffers27 system.ruby.network.int_link_buffers28 system.ruby.network.int_link_buffers29 system.ruby.network.int_link_buffers30 system.ruby.network.int_link_buffers31 system.ruby.network.int_link_buffers32 system.ruby.network.int_link_buffers33 system.ruby.network.int_link_buffers34 system.ruby.network.int_link_buffers35
int_links=system.ruby.network.int_links0 system.ruby.network.int_links1 system.ruby.network.int_links2 system.ruby.network.int_links3 system.ruby.network.int_links4 system.ruby.network.int_links5
netifs=
number_of_virtual_networks=3
p_state_clk_gate_bins=20
p_state_clk_gate_max=1000000000000
p_state_clk_gate_min=1000
power_model=
routers=system.ruby.network.routers0 system.ruby.network.routers1 system.ruby.network.routers2 system.ruby.network.routers3
ruby_system=system.ruby
topology=TCACrossbar
master=system.ruby.l1i_cntrl0.requestToL1Cache.slave system.ruby.l1i_cntrl0.responseToL1Cache.slave system.ruby.l1d_cntrl0.requestToL1Cache.slave system.ruby.l1d_cntrl0.responseToL1Cache.slave system.ruby.l2_cntrl0.unblockToL2Cache.slave system.ruby.l2_cntrl0.L1RequestToL2Cache.slave system.ruby.l2_cntrl0.responseToL2Cache.slave system.ruby.dir_cntrl0.requestToDir.slave system.ruby.dir_cntrl0.responseToDir.slave
slave=system.ruby.l1i_cntrl0.requestFromL1Cache.master system.ruby.l1i_cntrl0.responseFromL1Cache.master system.ruby.l1i_cntrl0.unblockFromL1Cache.master system.ruby.l1d_cntrl0.requestFromL1Cache.master system.ruby.l1d_cntrl0.responseFromL1Cache.master system.ruby.l1d_cntrl0.unblockFromL1Cache.master system.ruby.l2_cntrl0.DirRequestFromL2Cache.master system.ruby.l2_cntrl0.L1RequestFromL2Cache.master system.ruby.l2_cntrl0.responseFromL2Cache.master system.ruby.dir_cntrl0.responseFromDir.master

[system.ruby.network.ext_links0]
type=SimpleExtLink
bandwidth_factor=16
eventq_index=0
ext_node=system.ruby.l1i_cntrl0
int_node=system.ruby.network.routers0
latency=1
link_id=0
weight=1

[system.ruby.network.ext_links1]
type=SimpleExtLink
bandwidth_factor=16
eventq_index=0
ext_node=system.ruby.l1d_cntrl0
int_node=system.ruby.network.routers0
latency=1
link_id=1
weight=1

[system.ruby.network.ext_links2]
type=SimpleExtLink
bandwidth_factor=16
eventq_index=0
ext_node=system.ruby.l2_cntrl0
int_node=system.ruby.network.routers1
latency=1
link_id=2
weight=1

[system.ruby.network.ext_links3]
type=SimpleExtLink
bandwidth_factor=16
eventq_index=0
ext_node=system.ruby.dir_cntrl0
int_node=system.ruby.network.routers2
latency=1
link_id=3
weight=1

[system.ruby.network.int_link_buffers00]
type=MessageBuffer
buffer_size=0
eventq_index=0
ordered=true
randomization=false

[system.ruby.network.int_link_buffers01]
type=MessageBuffer
buffer_size=0
eventq_index=0
ordered=true
randomization=false

[system.ruby.network.int_link_buffers02]
type=MessageBuffer
buffer_size=0
eventq_index=0
ordered=true
randomization=false

[system.ruby.network.int_link_buffers03]
type=MessageBuffer
buffer_size=0
eventq_index=0
ordered=true
randomization=false

[system.ruby.network.int_link_buffers04]
type=MessageBuffer
buffer_size=0
eventq_index=0
ordered=true
randomization=false

[system.ruby.network.int_link_buffers05]
type=MessageBuffer
buffer_size=0
eventq_index=0
ordered=true
randomization=false

[system.ruby.network.int_link_buffers06]
type=MessageBuffer
buffer_size=0
eventq_index=0
ordered=true
randomization=false

[system.ruby.network.int_link_buffers07]
type=MessageBuffer
buffer_size=0
eventq_index=0
ordered=true
randomization=false

[system.ruby.network.int_link_buffers08]
type=MessageBuffer
buffer_size=0
eventq_index=0
ordered=true
randomization=false

[system.ruby.network.int_link_buffers09]
type=MessageBuffer
buffer_size=0
eventq_index=0
ordered=true
randomization=false

[system.ruby.network.int_link_buffers10]
type=MessageBuffer
buffer_size=0
eventq_index=0
ordered=true
randomization=false

[system.ruby.network.int_link_buffers11]
type=MessageBuffer
buffer_size=0
eventq_index=0
ordered=true
randomization=false

[system.ruby.network.int_link_buffers12]
type=MessageBuffer
buffer_size=0
eventq_index=0
ordered=true
randomization=false

[system.ruby.network.int_link_buffers13]
type=MessageBuffer
buffer_size=0
eventq_index=0
ordered=true
randomization=false

[system.ruby.network.int_link_buffers14]
type=MessageBuffer
buffer_size=0
eventq_index=0
ordered=true
randomization=false

[system.ruby.network.int_link_buffers15]
type=MessageBuffer
buffer_size=0
eventq_index=0
ordered=true
randomization=false

[system.ruby.network.int_link_buffers16]
type=MessageBuffer
buffer_size=0
eventq_index=0
ordered=true
randomization=false

[system.ruby.network.int_link_buffers17]
type=MessageBuffer
buffer_size=0
eventq_index=0
ordered=true
randomization=false

[system.ruby.network.int_link_buffers18]
type=MessageBuffer
buffer_size=0
eventq_index=0
ordered=true
randomization=false

[system.ruby.network.int_link_buffers19]
type=MessageBuffer
buffer_size=0
eventq_index=0
ordered=true
randomization=false

[system.ruby.network.int_link_buffers20]
type=MessageBuffer
buffer_size=0
eventq_index=0
ordered=true
randomization=false

[system.ruby.network.int_link_buffers21]
type=MessageBuffer
buffer_size=0
eventq_index=0
ordered=true
randomization=false

[system.ruby.network.int_link_buffers22]
type=MessageBuffer
buffer_size=0
eventq_index=0
ordered=true
randomization=false

[system.ruby.network.int_link_buffers23]
type=MessageBuffer
buffer_size=0
eventq_index=0
ordered=true
randomization=false

[system.ruby.network.int_link_buffers24]
type=MessageBuffer
buffer_size=0
eventq_index=0
ordered=true
randomization=false

[system.ruby.network.int_link_buffers25]
type=MessageBuffer
buffer_size=0
eventq_index=0
ordered=true
randomization=false

[system.ruby.network.int_link_buffers26]
type=MessageBuffer
buffer_size=0
eventq_index=0
ordered=true
randomization=false

[system.ruby.network.int_link_buffers27]
type=MessageBuffer
buffer_size=0
eventq_index=0
ordered=true
randomization=false

[system.ruby.network.int_link_buffers28]
type=MessageBuffer
buffer_size=0
eventq_index=0
ordered=true
randomization=false

[system.ruby.network.int_link_buffers29]
type=MessageBuffer
buffer_size=0
eventq_index=0
ordered=true
randomization=false

[system.ruby.network.int_link_buffers30]
type=MessageBuffer
buffer_size=0
eventq_index=0
ordered=true
randomization=false

[system.ruby.network.int_link_buffers31]
type=MessageBuffer
buffer_size=0
eventq_index=0
ordered=true
randomization=false

[system.ruby.network.int_link_buffers32]
type=MessageBuffer
buffer_size=0
eventq_index=0
ordered=true
randomization=false

[system.ruby.network.int_link_buffers33]
type=MessageBuffer
buffer_size=0
eventq_index=0
ordered=true
randomization=false

[system.ruby.network.int_link_buffers34]
type=MessageBuffer
buffer_size=0
eventq_index=0
ordered=true
randomization=false

[system.ruby.network.int_link_buffers35]
type=MessageBuffer
buffer_size=0
eventq_index=0
ordered=true
randomization=false

[system.ruby.network.int_links0]
type=SimpleIntLink
bandwidth_factor=16
dst_inport=
dst_node=system.ruby.network.routers3
eventq_index=0
latency=1
link_id=4
src_node=system.ruby.network.routers0
src_outport=
weight=1

[system.ruby.network.int_links1]
type=SimpleIntLink
bandwidth_factor=16
dst_inport=
dst_node=system.ruby.network.routers0
eventq_index=0
latency=1
link_id=5
src_node=system.ruby.network.routers3
src_outport=
weight=1

[system.ruby.network.int_links2]
type=SimpleIntLink
bandwidth_factor=16
dst_inport=
dst_node=system.ruby.network.routers3
eventq_index=0
latency=1
link_id=6
src_node=system.ruby.network.routers1
src_outport=
weight=1

[system.ruby.network.int_links3]
type=SimpleIntLink
bandwidth_factor=16
dst_inport=
dst_node=system.ruby.network.routers1
eventq_index=0
latency=1
link_id=7
src_node=system.ruby.network.routers3
src_outport=
weight=1

[system.ruby.network.int_links4]
type=SimpleIntLink
bandwidth_factor=16
dst_inport=
dst_node=system.ruby.network.routers3
eventq_index=0
latency=1
link_id=8
src_node=system.ruby.network.routers2
src_outport=
weight=1

[system.ruby.network.int_links5]
type=SimpleIntLink
bandwidth_factor=16
dst_inport=
dst_node=system.ruby.network.routers2
eventq_index=0
latency=1
link_id=9
src_node=system.ruby.network.routers3
src_outport=
weight=1

[system.ruby.network.routers0]
type=Switch
children=port_buffers00 port_buffers01 port_buffers02 port_buffers03 port_buffers04 port_buffers05 port_buffers06 port_buffers07 port_buffers08 port_buffers09 port_buffers10 port_buffers11 port_buffers12 port_buffers13 port_buffers14
clk_domain=system.ruby.clk_domain
default_p_state=UNDEFINED
eventq_index=0
latency=1
p_state_clk_gate_bins=20
p_state_clk_gate_max=1000000000000
p_state_clk_gate_min=1000
port_buffers=system.ruby.network.routers0.port_buffers00 system.ruby.network.routers0.port_buffers01 system.ruby.network.routers0.port_buffers02 system.ruby.network.routers0.port_buffers03 system.ruby.network.routers0.port_buffers04 system.ruby.network.routers0.port_buffers05 system.ruby.network.routers0.port_buffers06 system.ruby.network.routers0.port_buffers07 system.ruby.network.routers0.port_buffers08 system.ruby.network.routers0.port_buffers09 system.ruby.network.routers0.port_buffers10 system.ruby.network.routers0.port_buffers11 system.ruby.network.routers0.port_buffers12 system.ruby.network.routers0.port_buffers13 system.ruby.network.routers0.port_buffers14
power_model=
router_id=0
virt_nets=3

[system.ruby.network.routers0.port_buffers00]
type=MessageBuffer
buffer_size=0
eventq_index=0
ordered=true
randomization=false

[system.ruby.network.routers0.port_buffers01]
type=MessageBuffer
buffer_size=0
eventq_index=0
ordered=true
randomization=false

[system.ruby.network.routers0.port_buffers02]
type=MessageBuffer
buffer_size=0
eventq_index=0
ordered=true
randomization=false

[system.ruby.network.routers0.port_buffers03]
type=MessageBuffer
buffer_size=0
eventq_index=0
ordered=true
randomization=false

[system.ruby.network.routers0.port_buffers04]
type=MessageBuffer
buffer_size=0
eventq_index=0
ordered=true
randomization=false

[system.ruby.network.routers0.port_buffers05]
type=MessageBuffer
buffer_size=0
eventq_index=0
ordered=true
randomization=false

[system.ruby.network.routers0.port_buffers06]
type=MessageBuffer
buffer_size=0
eventq_index=0
ordered=true
randomization=false

[system.ruby.network.routers0.port_buffers07]
type=MessageBuffer
buffer_size=0
eventq_index=0
ordered=true
randomization=false

[system.ruby.network.routers0.port_buffers08]
type=MessageBuffer
buffer_size=0
eventq_index=0
ordered=true
randomization=false

[system.ruby.network.routers0.port_buffers09]
type=MessageBuffer
buffer_size=0
eventq_index=0
ordered=true
randomization=false

[system.ruby.network.routers0.port_buffers10]
type=MessageBuffer
buffer_size=0
eventq_index=0
ordered=true
randomization=false

[system.ruby.network.routers0.port_buffers11]
type=MessageBuffer
buffer_size=0
eventq_index=0
ordered=true
randomization=false

[system.ruby.network.routers0.port_buffers12]
type=MessageBuffer
buffer_size=0
eventq_index=0
ordered=true
randomization=false

[system.ruby.network.routers0.port_buffers13]
type=MessageBuffer
buffer_size=0
eventq_index=0
ordered=true
randomization=false
