[root]
type=Root
children=system
eventq_index=0
full_system=false
sim_quantum=0
time_sync_enable=false
time_sync_period=100000000000
time_sync_spin_threshold=100000000

[system]
type=System
children=clk_domain cooldown_cpu00 cooldown_cpu01 cooldown_cpu02 cooldown_cpu03 cooldown_cpu04 cooldown_cpu05 cooldown_cpu06 cooldown_cpu07 cooldown_cpu08 cooldown_cpu09 cooldown_cpu10 cooldown_cpu11 cooldown_cpu12 cooldown_cpu13 cooldown_cpu14 cooldown_cpu15 cooldown_cpu16 cooldown_cpu17 cooldown_cpu18 cooldown_cpu19 cooldown_cpu20 cooldown_cpu21 cooldown_cpu22 cooldown_cpu23 cooldown_cpu24 cooldown_cpu25 cooldown_cpu26 cooldown_cpu27 cooldown_cpu28 cooldown_cpu29 cooldown_cpu30 cooldown_cpu31 cooldown_cpu32 cooldown_cpu33 cooldown_cpu34 cooldown_cpu35 cooldown_cpu36 cooldown_cpu37 cooldown_cpu38 cooldown_cpu39 cooldown_cpu40 cooldown_cpu41 cooldown_cpu42 cooldown_cpu43 cooldown_cpu44 cooldown_cpu45 cooldown_cpu46 cooldown_cpu47 cooldown_cpu48 cooldown_cpu49 cooldown_cpu50 cooldown_cpu51 cooldown_cpu52 cooldown_cpu53 cooldown_cpu54 cooldown_cpu55 cooldown_cpu56 cooldown_cpu57 cooldown_cpu58 cooldown_cpu59 cooldown_cpu60 cooldown_cpu61 cooldown_cpu62 cooldown_cpu63 cpu00 cpu01 cpu02 cpu03 cpu04 cpu05 cpu06 cpu07 cpu08 cpu09 cpu10 cpu11 cpu12 cpu13 cpu14 cpu15 cpu16 cpu17 cpu18 cpu19 cpu20 cpu21 cpu22 cpu23 cpu24 cpu25 cpu26 cpu27 cpu28 cpu29 cpu30 cpu31 cpu32 cpu33 cpu34 cpu35 cpu36 cpu37 cpu38 cpu39 cpu40 cpu41 cpu42 cpu43 cpu44 cpu45 cpu46 cpu47 cpu48 cpu49 cpu50 cpu51 cpu52 cpu53 cpu54 cpu55 cpu56 cpu57 cpu58 cpu59 cpu60 cpu61 cpu62 cpu63 cpu_clk_domain cpu_voltage_domain dvfs_handler main_cpu00 main_cpu01 main_cpu02 main_cpu03 main_cpu04 main_cpu05 main_cpu06 main_cpu07 main_cpu08 main_cpu09 main_cpu10 main_cpu11 main_cpu12 main_cpu13 main_cpu14 main_cpu15 main_cpu16 main_cpu17 main_cpu18 main_cpu19 main_cpu20 main_cpu21 main_cpu22 main_cpu23 main_cpu24 main_cpu25 main_cpu26 main_cpu27 main_cpu28 main_cpu29 main_cpu30 main_cpu31 main_cpu32 main_cpu33 main_cpu34 main_cpu35 main_cpu36 main_cpu37 main_cpu38 main_cpu39 main_cpu40 main_cpu41 main_cpu42 main_cpu43 main_cpu44 main_cpu45 main_cpu46 main_cpu47 main_cpu48 main_cpu49 main_cpu50 main_cpu51 main_cpu52 main_cpu53 main_cpu54 main_cpu55 main_cpu56 main_cpu57 main_cpu58 main_cpu59 main_cpu60 main_cpu61 main_cpu62 main_cpu63 mem_ctrls0 mem_ctrls1 mem_ctrls2 mem_ctrls3 mem_ctrls4 mem_ctrls5 mem_ctrls6 mem_ctrls7 ruby sys_port_proxy voltage_domain
boot_osflags=a
brg_fast_forward=true
cache_line_size=64
clk_domain=system.clk_domain
default_p_state=UNDEFINED
eventq_index=0
exit_on_work_items=false
init_param=0
kernel=
kernel_addr_check=true
kernel_extras=
load_addr_mask=18446744073709551615
load_offset=0
mem_mode=atomic_noncaching
mem_ranges=0:4294967295:0:0:0:0
memories=system.mem_ctrls0 system.mem_ctrls1 system.mem_ctrls2 system.mem_ctrls3 system.mem_ctrls4 system.mem_ctrls5 system.mem_ctrls6 system.mem_ctrls7
mmap_using_noreserve=false
multi_thread=false
num_work_ids=16
p_state_clk_gate_bins=20
p_state_clk_gate_max=1000000000000
p_state_clk_gate_min=1000
power_model=
readfile=
symbolfile=
thermal_components=
thermal_model=Null
work_begin_ckpt_count=0
work_begin_cpu_id_exit=-1
work_begin_exit_count=0
work_cpus_ckpt_count=0
work_end_ckpt_count=0
work_end_exit_count=0
work_item_id=-1
system_port=system.sys_port_proxy.slave[0]

[system.clk_domain]
type=SrcClockDomain
clock=1000
domain_id=-1
eventq_index=0
init_perf_level=0
voltage_domain=system.voltage_domain

[system.cooldown_cpu00]
type=NonCachingSimpleCPU
children=dtb itb tracer
activity_trace=false
branchPred=Null
checker=Null
clk_domain=system.cpu_clk_domain
cpu_id=0
default_p_state=UNDEFINED
do_checkpoint_insts=true
do_quiesce=true
do_statistics_insts=true
dtb=system.cooldown_cpu00.dtb
eventq_index=0
function_trace=false
function_trace_start=0
interrupts=system.cpu00.interrupts
isa=system.cpu00.isa
itb=system.cooldown_cpu00.itb
max_insts_all_threads=0
max_insts_any_thread=0
max_loads_all_threads=0
max_loads_any_thread=0
numThreads=1
p_state_clk_gate_bins=20
p_state_clk_gate_max=1000000000000
p_state_clk_gate_min=1000
power_gating_on_idle=false
power_model=
profile=0
progress_interval=0
pwr_gating_latency=300
simpoint_start_insts=
simulate_data_stalls=false
simulate_inst_stalls=false
socket_id=0
switched_out=true
syscallRetryLatency=10000
system=system
tracer=system.cooldown_cpu00.tracer
wait_for_remote_gdb=false
width=1
workload=system.cpu00.workload

[system.cooldown_cpu00.dtb]
type=RiscvTLB
eventq_index=0
size=64

[system.cooldown_cpu00.itb]
type=RiscvTLB
eventq_index=0
size=64

[system.cooldown_cpu00.tracer]
type=ExeTracer
eventq_index=0

[system.cooldown_cpu01]
type=NonCachingSimpleCPU
children=dtb itb tracer
activity_trace=false
branchPred=Null
checker=Null
clk_domain=system.cpu_clk_domain
cpu_id=1
default_p_state=UNDEFINED
do_checkpoint_insts=true
do_quiesce=true
do_statistics_insts=true
dtb=system.cooldown_cpu01.dtb
eventq_index=0
function_trace=false
function_trace_start=0
interrupts=system.cpu01.interrupts
isa=system.cpu01.isa
itb=system.cooldown_cpu01.itb
max_insts_all_threads=0
max_insts_any_thread=0
max_loads_all_threads=0
max_loads_any_thread=0
numThreads=1
p_state_clk_gate_bins=20
p_state_clk_gate_max=1000000000000
p_state_clk_gate_min=1000
power_gating_on_idle=false
power_model=
profile=0
progress_interval=0
pwr_gating_latency=300
simpoint_start_insts=
simulate_data_stalls=false
simulate_inst_stalls=false
socket_id=0
switched_out=true
syscallRetryLatency=10000
system=system
tracer=system.cooldown_cpu01.tracer
wait_for_remote_gdb=false
width=1
workload=system.cpu00.workload

[system.cooldown_cpu01.dtb]
type=RiscvTLB
eventq_index=0
size=64

[system.cooldown_cpu01.itb]
type=RiscvTLB
eventq_index=0
size=64

[system.cooldown_cpu01.tracer]
type=ExeTracer
eventq_index=0

[system.cooldown_cpu02]
type=NonCachingSimpleCPU
children=dtb itb tracer
activity_trace=false
branchPred=Null
checker=Null
clk_domain=system.cpu_clk_domain
cpu_id=2
default_p_state=UNDEFINED
do_checkpoint_insts=true
do_quiesce=true
do_statistics_insts=true
dtb=system.cooldown_cpu02.dtb
eventq_index=0
function_trace=false
function_trace_start=0
interrupts=system.cpu02.interrupts
isa=system.cpu02.isa
itb=system.cooldown_cpu02.itb
max_insts_all_threads=0
max_insts_any_thread=0
max_loads_all_threads=0
max_loads_any_thread=0
numThreads=1
p_state_clk_gate_bins=20
p_state_clk_gate_max=1000000000000
p_state_clk_gate_min=1000
power_gating_on_idle=false
power_model=
profile=0
progress_interval=0
pwr_gating_latency=300
simpoint_start_insts=
simulate_data_stalls=false
simulate_inst_stalls=false
socket_id=0
switched_out=true
syscallRetryLatency=10000
system=system
tracer=system.cooldown_cpu02.tracer
wait_for_remote_gdb=false
width=1
workload=system.cpu00.workload

[system.cooldown_cpu02.dtb]
type=RiscvTLB
eventq_index=0
size=64

[system.cooldown_cpu02.itb]
type=RiscvTLB
eventq_index=0
size=64

[system.cooldown_cpu02.tracer]
type=ExeTracer
eventq_index=0

[system.cooldown_cpu03]
type=NonCachingSimpleCPU
children=dtb itb tracer
activity_trace=false
branchPred=Null
checker=Null
clk_domain=system.cpu_clk_domain
cpu_id=3
default_p_state=UNDEFINED
do_checkpoint_insts=true
do_quiesce=true
do_statistics_insts=true
dtb=system.cooldown_cpu03.dtb
eventq_index=0
function_trace=false
function_trace_start=0
interrupts=system.cpu03.interrupts
isa=system.cpu03.isa
itb=system.cooldown_cpu03.itb
max_insts_all_threads=0
max_insts_any_thread=0
max_loads_all_threads=0
max_loads_any_thread=0
numThreads=1
p_state_clk_gate_bins=20
p_state_clk_gate_max=1000000000000
p_state_clk_gate_min=1000
power_gating_on_idle=false
power_model=
profile=0
progress_interval=0
pwr_gating_latency=300
simpoint_start_insts=
simulate_data_stalls=false
simulate_inst_stalls=false
socket_id=0
switched_out=true
syscallRetryLatency=10000
system=system
tracer=system.cooldown_cpu03.tracer
wait_for_remote_gdb=false
width=1
workload=system.cpu00.workload

[system.cooldown_cpu03.dtb]
type=RiscvTLB
eventq_index=0
size=64

[system.cooldown_cpu03.itb]
type=RiscvTLB
eventq_index=0
size=64

[system.cooldown_cpu03.tracer]
type=ExeTracer
eventq_index=0

[system.cooldown_cpu04]
type=NonCachingSimpleCPU
children=dtb itb tracer
activity_trace=false
branchPred=Null
checker=Null
clk_domain=system.cpu_clk_domain
cpu_id=4
default_p_state=UNDEFINED
do_checkpoint_insts=true
do_quiesce=true
do_statistics_insts=true
dtb=system.cooldown_cpu04.dtb
eventq_index=0
function_trace=false
function_trace_start=0
interrupts=system.cpu04.interrupts
isa=system.cpu04.isa
itb=system.cooldown_cpu04.itb
max_insts_all_threads=0
max_insts_any_thread=0
max_loads_all_threads=0
max_loads_any_thread=0
numThreads=1
p_state_clk_gate_bins=20
p_state_clk_gate_max=1000000000000
p_state_clk_gate_min=1000
power_gating_on_idle=false
power_model=
profile=0
progress_interval=0
pwr_gating_latency=300
simpoint_start_insts=
simulate_data_stalls=false
simulate_inst_stalls=false
socket_id=0
switched_out=true
syscallRetryLatency=10000
system=system
tracer=system.cooldown_cpu04.tracer
wait_for_remote_gdb=false
width=1
workload=system.cpu00.workload

[system.cooldown_cpu04.dtb]
type=RiscvTLB
eventq_index=0
size=64

[system.cooldown_cpu04.itb]
type=RiscvTLB
eventq_index=0
size=64

[system.cooldown_cpu04.tracer]
type=ExeTracer
eventq_index=0

[system.cooldown_cpu05]
type=NonCachingSimpleCPU
children=dtb itb tracer
activity_trace=false
branchPred=Null
checker=Null
clk_domain=system.cpu_clk_domain
cpu_id=5
default_p_state=UNDEFINED
do_checkpoint_insts=true
do_quiesce=true
do_statistics_insts=true
dtb=system.cooldown_cpu05.dtb
eventq_index=0
function_trace=false
function_trace_start=0
interrupts=system.cpu05.interrupts
isa=system.cpu05.isa
itb=system.cooldown_cpu05.itb
max_insts_all_threads=0
max_insts_any_thread=0
max_loads_all_threads=0
max_loads_any_thread=0
numThreads=1
p_state_clk_gate_bins=20
p_state_clk_gate_max=1000000000000
p_state_clk_gate_min=1000
power_gating_on_idle=false
power_model=
profile=0
progress_interval=0
pwr_gating_latency=300
simpoint_start_insts=
simulate_data_stalls=false
simulate_inst_stalls=false
socket_id=0
switched_out=true
syscallRetryLatency=10000
system=system
tracer=system.cooldown_cpu05.tracer
wait_for_remote_gdb=false
width=1
workload=system.cpu00.workload

[system.cooldown_cpu05.dtb]
type=RiscvTLB
eventq_index=0
size=64

[system.cooldown_cpu05.itb]
type=RiscvTLB
eventq_index=0
size=64

[system.cooldown_cpu05.tracer]
type=ExeTracer
eventq_index=0

[system.cooldown_cpu06]
type=NonCachingSimpleCPU
children=dtb itb tracer
activity_trace=false
branchPred=Null
checker=Null
clk_domain=system.cpu_clk_domain
cpu_id=6
default_p_state=UNDEFINED
do_checkpoint_insts=true
do_quiesce=true
do_statistics_insts=true
dtb=system.cooldown_cpu06.dtb
eventq_index=0
function_trace=false
function_trace_start=0
interrupts=system.cpu06.interrupts
isa=system.cpu06.isa
itb=system.cooldown_cpu06.itb
max_insts_all_threads=0
max_insts_any_thread=0
max_loads_all_threads=0
max_loads_any_thread=0
numThreads=1
p_state_clk_gate_bins=20
p_state_clk_gate_max=1000000000000
p_state_clk_gate_min=1000
power_gating_on_idle=false
power_model=
profile=0
progress_interval=0
pwr_gating_latency=300
simpoint_start_insts=
simulate_data_stalls=false
simulate_inst_stalls=false
socket_id=0
switched_out=true
syscallRetryLatency=10000
system=system
tracer=system.cooldown_cpu06.tracer
wait_for_remote_gdb=false
width=1
workload=system.cpu00.workload

[system.cooldown_cpu06.dtb]
type=RiscvTLB
eventq_index=0
size=64

[system.cooldown_cpu06.itb]
type=RiscvTLB
eventq_index=0
size=64

[system.cooldown_cpu06.tracer]
type=ExeTracer
eventq_index=0

[system.cooldown_cpu07]
type=NonCachingSimpleCPU
children=dtb itb tracer
activity_trace=false
branchPred=Null
checker=Null
clk_domain=system.cpu_clk_domain
cpu_id=7
default_p_state=UNDEFINED
do_checkpoint_insts=true
do_quiesce=true
do_statistics_insts=true
dtb=system.cooldown_cpu07.dtb
eventq_index=0
function_trace=false
function_trace_start=0
interrupts=system.cpu07.interrupts
isa=system.cpu07.isa
itb=system.cooldown_cpu07.itb
max_insts_all_threads=0
max_insts_any_thread=0
max_loads_all_threads=0
max_loads_any_thread=0
numThreads=1
p_state_clk_gate_bins=20
p_state_clk_gate_max=1000000000000
p_state_clk_gate_min=1000
power_gating_on_idle=false
power_model=
profile=0
progress_interval=0
pwr_gating_latency=300
simpoint_start_insts=
simulate_data_stalls=false
simulate_inst_stalls=false
socket_id=0
switched_out=true
syscallRetryLatency=10000
system=system
tracer=system.cooldown_cpu07.tracer
wait_for_remote_gdb=false
width=1
workload=system.cpu00.workload

[system.cooldown_cpu07.dtb]
type=RiscvTLB
eventq_index=0
size=64

[system.cooldown_cpu07.itb]
type=RiscvTLB
eventq_index=0
size=64

[system.cooldown_cpu07.tracer]
type=ExeTracer
eventq_index=0

[system.cooldown_cpu08]
type=NonCachingSimpleCPU
children=dtb itb tracer
activity_trace=false
branchPred=Null
checker=Null
clk_domain=system.cpu_clk_domain
cpu_id=8
default_p_state=UNDEFINED
do_checkpoint_insts=true
do_quiesce=true
do_statistics_insts=true
dtb=system.cooldown_cpu08.dtb
eventq_index=0
function_trace=false
function_trace_start=0
interrupts=system.cpu08.interrupts
isa=system.cpu08.isa
itb=system.cooldown_cpu08.itb
max_insts_all_threads=0
max_insts_any_thread=0
max_loads_all_threads=0
max_loads_any_thread=0
numThreads=1
p_state_clk_gate_bins=20
p_state_clk_gate_max=1000000000000
p_state_clk_gate_min=1000
power_gating_on_idle=false
power_model=
profile=0
progress_interval=0
pwr_gating_latency=300
simpoint_start_insts=
simulate_data_stalls=false
simulate_inst_stalls=false
socket_id=0
switched_out=true
syscallRetryLatency=10000
system=system
tracer=system.cooldown_cpu08.tracer
wait_for_remote_gdb=false
width=1
workload=system.cpu00.workload

[system.cooldown_cpu08.dtb]
type=RiscvTLB
eventq_index=0
size=64

[system.cooldown_cpu08.itb]
type=RiscvTLB
eventq_index=0
size=64

[system.cooldown_cpu08.tracer]
type=ExeTracer
eventq_index=0

[system.cooldown_cpu09]
type=NonCachingSimpleCPU
children=dtb itb tracer
activity_trace=false
branchPred=Null
checker=Null
clk_domain=system.cpu_clk_domain
cpu_id=9
default_p_state=UNDEFINED
do_checkpoint_insts=true
do_quiesce=true
do_statistics_insts=true
dtb=system.cooldown_cpu09.dtb
eventq_index=0
function_trace=false
function_trace_start=0
interrupts=system.cpu09.interrupts
isa=system.cpu09.isa
itb=system.cooldown_cpu09.itb
max_insts_all_threads=0
max_insts_any_thread=0
max_loads_all_threads=0
max_loads_any_thread=0
numThreads=1
p_state_clk_gate_bins=20
p_state_clk_gate_max=1000000000000
p_state_clk_gate_min=1000
power_gating_on_idle=false
power_model=
profile=0
progress_interval=0
pwr_gating_latency=300
simpoint_start_insts=
simulate_data_stalls=false
simulate_inst_stalls=false
socket_id=0
switched_out=true
syscallRetryLatency=10000
system=system
tracer=system.cooldown_cpu09.tracer
wait_for_remote_gdb=false
width=1
workload=system.cpu00.workload

[system.cooldown_cpu09.dtb]
type=RiscvTLB
eventq_index=0
size=64

[system.cooldown_cpu09.itb]
type=RiscvTLB
eventq_index=0
size=64

[system.cooldown_cpu09.tracer]
type=ExeTracer
eventq_index=0

[system.cooldown_cpu10]
type=NonCachingSimpleCPU
children=dtb itb tracer
activity_trace=false
branchPred=Null
checker=Null
clk_domain=system.cpu_clk_domain
cpu_id=10
default_p_state=UNDEFINED
do_checkpoint_insts=true
do_quiesce=true
do_statistics_insts=true
dtb=system.cooldown_cpu10.dtb
eventq_index=0
function_trace=false
function_trace_start=0
interrupts=system.cpu10.interrupts
isa=system.cpu10.isa
itb=system.cooldown_cpu10.itb
max_insts_all_threads=0
max_insts_any_thread=0
max_loads_all_threads=0
max_loads_any_thread=0
numThreads=1
p_state_clk_gate_bins=20
p_state_clk_gate_max=1000000000000
p_state_clk_gate_min=1000
power_gating_on_idle=false
power_model=
profile=0
progress_interval=0
pwr_gating_latency=300
simpoint_start_insts=
simulate_data_stalls=false
simulate_inst_stalls=false
socket_id=0
switched_out=true
syscallRetryLatency=10000
system=system
tracer=system.cooldown_cpu10.tracer
wait_for_remote_gdb=false
width=1
workload=system.cpu00.workload

[system.cooldown_cpu10.dtb]
type=RiscvTLB
eventq_index=0
size=64

[system.cooldown_cpu10.itb]
type=RiscvTLB
eventq_index=0
size=64

[system.cooldown_cpu10.tracer]
type=ExeTracer
eventq_index=0

[system.cooldown_cpu11]
type=NonCachingSimpleCPU
children=dtb itb tracer
activity_trace=false
branchPred=Null
checker=Null
clk_domain=system.cpu_clk_domain
cpu_id=11
default_p_state=UNDEFINED
do_checkpoint_insts=true
do_quiesce=true
do_statistics_insts=true
dtb=system.cooldown_cpu11.dtb
eventq_index=0
function_trace=false
function_trace_start=0
interrupts=system.cpu11.interrupts
isa=system.cpu11.isa
itb=system.cooldown_cpu11.itb
max_insts_all_threads=0
max_insts_any_thread=0
max_loads_all_threads=0
max_loads_any_thread=0
numThreads=1
p_state_clk_gate_bins=20
p_state_clk_gate_max=1000000000000
p_state_clk_gate_min=1000
power_gating_on_idle=false
power_model=
profile=0
progress_interval=0
pwr_gating_latency=300
simpoint_start_insts=
simulate_data_stalls=false
simulate_inst_stalls=false
socket_id=0
switched_out=true
syscallRetryLatency=10000
system=system
tracer=system.cooldown_cpu11.tracer
wait_for_remote_gdb=false
width=1
workload=system.cpu00.workload

[system.cooldown_cpu11.dtb]
type=RiscvTLB
eventq_index=0
size=64

[system.cooldown_cpu11.itb]
type=RiscvTLB
eventq_index=0
size=64

[system.cooldown_cpu11.tracer]
type=ExeTracer
eventq_index=0

[system.cooldown_cpu12]
type=NonCachingSimpleCPU
children=dtb itb tracer
activity_trace=false
branchPred=Null
checker=Null
clk_domain=system.cpu_clk_domain
cpu_id=12
default_p_state=UNDEFINED
do_checkpoint_insts=true
do_quiesce=true
do_statistics_insts=true
dtb=system.cooldown_cpu12.dtb
eventq_index=0
function_trace=false
function_trace_start=0
interrupts=system.cpu12.interrupts
isa=system.cpu12.isa
itb=system.cooldown_cpu12.itb
max_insts_all_threads=0
max_insts_any_thread=0
max_loads_all_threads=0
max_loads_any_thread=0
numThreads=1
p_state_clk_gate_bins=20
p_state_clk_gate_max=1000000000000
p_state_clk_gate_min=1000
power_gating_on_idle=false
power_model=
profile=0
progress_interval=0
pwr_gating_latency=300
simpoint_start_insts=
simulate_data_stalls=false
simulate_inst_stalls=false
socket_id=0
switched_out=true
syscallRetryLatency=10000
system=system
tracer=system.cooldown_cpu12.tracer
wait_for_remote_gdb=false
width=1
workload=system.cpu00.workload

[system.cooldown_cpu12.dtb]
type=RiscvTLB
eventq_index=0
size=64

[system.cooldown_cpu12.itb]
type=RiscvTLB
eventq_index=0
size=64

[system.cooldown_cpu12.tracer]
type=ExeTracer
eventq_index=0

[system.cooldown_cpu13]
type=NonCachingSimpleCPU
children=dtb itb tracer
activity_trace=false
branchPred=Null
checker=Null
clk_domain=system.cpu_clk_domain
cpu_id=13
default_p_state=UNDEFINED
do_checkpoint_insts=true
do_quiesce=true
do_statistics_insts=true
dtb=system.cooldown_cpu13.dtb
eventq_index=0
function_trace=false
function_trace_start=0
interrupts=system.cpu13.interrupts
isa=system.cpu13.isa
itb=system.cooldown_cpu13.itb
max_insts_all_threads=0
max_insts_any_thread=0
max_loads_all_threads=0
max_loads_any_thread=0
numThreads=1
p_state_clk_gate_bins=20
p_state_clk_gate_max=1000000000000
p_state_clk_gate_min=1000
power_gating_on_idle=false
power_model=
profile=0
progress_interval=0
pwr_gating_latency=300
simpoint_start_insts=
simulate_data_stalls=false
simulate_inst_stalls=false
socket_id=0
switched_out=true
syscallRetryLatency=10000
system=system
tracer=system.cooldown_cpu13.tracer
wait_for_remote_gdb=false
width=1
workload=system.cpu00.workload

[system.cooldown_cpu13.dtb]
type=RiscvTLB
eventq_index=0
size=64

[system.cooldown_cpu13.itb]
type=RiscvTLB
eventq_index=0
size=64

[system.cooldown_cpu13.tracer]
type=ExeTracer
eventq_index=0

[system.cooldown_cpu14]
type=NonCachingSimpleCPU
children=dtb itb tracer
activity_trace=false
branchPred=Null
checker=Null
clk_domain=system.cpu_clk_domain
cpu_id=14
default_p_state=UNDEFINED
do_checkpoint_insts=true
do_quiesce=true
do_statistics_insts=true
dtb=system.cooldown_cpu14.dtb
eventq_index=0
function_trace=false
function_trace_start=0
interrupts=system.cpu14.interrupts
isa=system.cpu14.isa
itb=system.cooldown_cpu14.itb
max_insts_all_threads=0
max_insts_any_thread=0
max_loads_all_threads=0
max_loads_any_thread=0
numThreads=1
p_state_clk_gate_bins=20
p_state_clk_gate_max=1000000000000
p_state_clk_gate_min=1000
power_gating_on_idle=false
power_model=
profile=0
progress_interval=0
pwr_gating_latency=300
simpoint_start_insts=
simulate_data_stalls=false
simulate_inst_stalls=false
socket_id=0
switched_out=true
syscallRetryLatency=10000
system=system
tracer=system.cooldown_cpu14.tracer
wait_for_remote_gdb=false
width=1
workload=system.cpu00.workload

[system.cooldown_cpu14.dtb]
type=RiscvTLB
eventq_index=0
size=64

[system.cooldown_cpu14.itb]
type=RiscvTLB
eventq_index=0
size=64

[system.cooldown_cpu14.tracer]
type=ExeTracer
eventq_index=0

[system.cooldown_cpu15]
type=NonCachingSimpleCPU
children=dtb itb tracer
activity_trace=false
branchPred=Null
checker=Null
clk_domain=system.cpu_clk_domain
cpu_id=15
default_p_state=UNDEFINED
do_checkpoint_insts=true
do_quiesce=true
do_statistics_insts=true
dtb=system.cooldown_cpu15.dtb
eventq_index=0
function_trace=false
function_trace_start=0
interrupts=system.cpu15.interrupts
isa=system.cpu15.isa
itb=system.cooldown_cpu15.itb
max_insts_all_threads=0
max_insts_any_thread=0
max_loads_all_threads=0
max_loads_any_thread=0
numThreads=1
p_state_clk_gate_bins=20
p_state_clk_gate_max=1000000000000
p_state_clk_gate_min=1000
power_gating_on_idle=false
power_model=
profile=0
progress_interval=0
pwr_gating_latency=300
simpoint_start_insts=
simulate_data_stalls=false
simulate_inst_stalls=false
socket_id=0
switched_out=true
syscallRetryLatency=10000
system=system
tracer=system.cooldown_cpu15.tracer
wait_for_remote_gdb=false
width=1
workload=system.cpu00.workload

[system.cooldown_cpu15.dtb]
type=RiscvTLB
eventq_index=0
size=64

[system.cooldown_cpu15.itb]
type=RiscvTLB
eventq_index=0
size=64

[system.cooldown_cpu15.tracer]
type=ExeTracer
eventq_index=0

[system.cooldown_cpu16]
type=NonCachingSimpleCPU
children=dtb itb tracer
activity_trace=false
branchPred=Null
checker=Null
clk_domain=system.cpu_clk_domain
cpu_id=16
default_p_state=UNDEFINED
do_checkpoint_insts=true
do_quiesce=true
do_statistics_insts=true
dtb=system.cooldown_cpu16.dtb
eventq_index=0
function_trace=false
function_trace_start=0
interrupts=system.cpu16.interrupts
isa=system.cpu16.isa
itb=system.cooldown_cpu16.itb
max_insts_all_threads=0
max_insts_any_thread=0
max_loads_all_threads=0
max_loads_any_thread=0
numThreads=1
p_state_clk_gate_bins=20
p_state_clk_gate_max=1000000000000
p_state_clk_gate_min=1000
power_gating_on_idle=false
power_model=
profile=0
progress_interval=0
pwr_gating_latency=300
simpoint_start_insts=
simulate_data_stalls=false
simulate_inst_stalls=false
socket_id=0
switched_out=true
syscallRetryLatency=10000
system=system
tracer=system.cooldown_cpu16.tracer
wait_for_remote_gdb=false
width=1
workload=system.cpu00.workload

[system.cooldown_cpu16.dtb]
type=RiscvTLB
eventq_index=0
size=64

[system.cooldown_cpu16.itb]
type=RiscvTLB
eventq_index=0
size=64

[system.cooldown_cpu16.tracer]
type=ExeTracer
eventq_index=0

[system.cooldown_cpu17]
type=NonCachingSimpleCPU
children=dtb itb tracer
activity_trace=false
branchPred=Null
checker=Null
clk_domain=system.cpu_clk_domain
cpu_id=17
default_p_state=UNDEFINED
do_checkpoint_insts=true
do_quiesce=true
do_statistics_insts=true
dtb=system.cooldown_cpu17.dtb
eventq_index=0
function_trace=false
function_trace_start=0
interrupts=system.cpu17.interrupts
isa=system.cpu17.isa
itb=system.cooldown_cpu17.itb
max_insts_all_threads=0
max_insts_any_thread=0
max_loads_all_threads=0
max_loads_any_thread=0
numThreads=1
p_state_clk_gate_bins=20
p_state_clk_gate_max=1000000000000
p_state_clk_gate_min=1000
power_gating_on_idle=false
power_model=
profile=0
progress_interval=0
pwr_gating_latency=300
simpoint_start_insts=
simulate_data_stalls=false
simulate_inst_stalls=false
socket_id=0
switched_out=true
syscallRetryLatency=10000
system=system
tracer=system.cooldown_cpu17.tracer
wait_for_remote_gdb=false
width=1
workload=system.cpu00.workload

[system.cooldown_cpu17.dtb]
type=RiscvTLB
eventq_index=0
size=64

[system.cooldown_cpu17.itb]
type=RiscvTLB
eventq_index=0
size=64

[system.cooldown_cpu17.tracer]
type=ExeTracer
eventq_index=0

[system.cooldown_cpu18]
type=NonCachingSimpleCPU
children=dtb itb tracer
activity_trace=false
branchPred=Null
checker=Null
clk_domain=system.cpu_clk_domain
cpu_id=18
default_p_state=UNDEFINED
do_checkpoint_insts=true
do_quiesce=true
do_statistics_insts=true
dtb=system.cooldown_cpu18.dtb
eventq_index=0
function_trace=false
function_trace_start=0
interrupts=system.cpu18.interrupts
isa=system.cpu18.isa
itb=system.cooldown_cpu18.itb
max_insts_all_threads=0
max_insts_any_thread=0
max_loads_all_threads=0
max_loads_any_thread=0
numThreads=1
p_state_clk_gate_bins=20
p_state_clk_gate_max=1000000000000
p_state_clk_gate_min=1000
power_gating_on_idle=false
power_model=
profile=0
progress_interval=0
pwr_gating_latency=300
simpoint_start_insts=
simulate_data_stalls=false
simulate_inst_stalls=false
socket_id=0
switched_out=true
syscallRetryLatency=10000
system=system
tracer=system.cooldown_cpu18.tracer
wait_for_remote_gdb=false
width=1
workload=system.cpu00.workload

[system.cooldown_cpu18.dtb]
type=RiscvTLB
eventq_index=0
size=64

[system.cooldown_cpu18.itb]
type=RiscvTLB
eventq_index=0
size=64

[system.cooldown_cpu18.tracer]
type=ExeTracer
eventq_index=0

[system.cooldown_cpu19]
type=NonCachingSimpleCPU
children=dtb itb tracer
activity_trace=false
branchPred=Null
checker=Null
clk_domain=system.cpu_clk_domain
cpu_id=19
default_p_state=UNDEFINED
do_checkpoint_insts=true
do_quiesce=true
do_statistics_insts=true
dtb=system.cooldown_cpu19.dtb
eventq_index=0
function_trace=false
function_trace_start=0
interrupts=system.cpu19.interrupts
isa=system.cpu19.isa
itb=system.cooldown_cpu19.itb
max_insts_all_threads=0
max_insts_any_thread=0
max_loads_all_threads=0
max_loads_any_thread=0
numThreads=1
p_state_clk_gate_bins=20
p_state_clk_gate_max=1000000000000
p_state_clk_gate_min=1000
power_gating_on_idle=false
power_model=
profile=0
progress_interval=0
pwr_gating_latency=300
simpoint_start_insts=
simulate_data_stalls=false
simulate_inst_stalls=false
socket_id=0
switched_out=true
syscallRetryLatency=10000
system=system
tracer=system.cooldown_cpu19.tracer
wait_for_remote_gdb=false
width=1
workload=system.cpu00.workload

[system.cooldown_cpu19.dtb]
type=RiscvTLB
eventq_index=0
size=64

[system.cooldown_cpu19.itb]
type=RiscvTLB
eventq_index=0
size=64

[system.cooldown_cpu19.tracer]
type=ExeTracer
eventq_index=0

[system.cooldown_cpu20]
type=NonCachingSimpleCPU
children=dtb itb tracer
activity_trace=false
branchPred=Null
checker=Null
clk_domain=system.cpu_clk_domain
cpu_id=20
default_p_state=UNDEFINED
do_checkpoint_insts=true
do_quiesce=true
do_statistics_insts=true
dtb=system.cooldown_cpu20.dtb
eventq_index=0
function_trace=false
function_trace_start=0
interrupts=system.cpu20.interrupts
isa=system.cpu20.isa
itb=system.cooldown_cpu20.itb
max_insts_all_threads=0
max_insts_any_thread=0
max_loads_all_threads=0
max_loads_any_thread=0
numThreads=1
p_state_clk_gate_bins=20
p_state_clk_gate_max=1000000000000
p_state_clk_gate_min=1000
power_gating_on_idle=false
power_model=
profile=0
progress_interval=0
pwr_gating_latency=300
simpoint_start_insts=
simulate_data_stalls=false
simulate_inst_stalls=false
socket_id=0
switched_out=true
syscallRetryLatency=10000
system=system
tracer=system.cooldown_cpu20.tracer
wait_for_remote_gdb=false
width=1
workload=system.cpu00.workload

[system.cooldown_cpu20.dtb]
type=RiscvTLB
eventq_index=0
size=64

[system.cooldown_cpu20.itb]
type=RiscvTLB
eventq_index=0
size=64

[system.cooldown_cpu20.tracer]
type=ExeTracer
eventq_index=0

[system.cooldown_cpu21]
type=NonCachingSimpleCPU
children=dtb itb tracer
activity_trace=false
branchPred=Null
checker=Null
clk_domain=system.cpu_clk_domain
cpu_id=21
default_p_state=UNDEFINED
do_checkpoint_insts=true
do_quiesce=true
do_statistics_insts=true
dtb=system.cooldown_cpu21.dtb
eventq_index=0
function_trace=false
function_trace_start=0
interrupts=system.cpu21.interrupts
isa=system.cpu21.isa
itb=system.cooldown_cpu21.itb
max_insts_all_threads=0
max_insts_any_thread=0
max_loads_all_threads=0
max_loads_any_thread=0
numThreads=1
p_state_clk_gate_bins=20
p_state_clk_gate_max=1000000000000
p_state_clk_gate_min=1000
power_gating_on_idle=false
power_model=
profile=0
progress_interval=0
pwr_gating_latency=300
simpoint_start_insts=
simulate_data_stalls=false
simulate_inst_stalls=false
socket_id=0
switched_out=true
syscallRetryLatency=10000
system=system
tracer=system.cooldown_cpu21.tracer
wait_for_remote_gdb=false
width=1
workload=system.cpu00.workload

[system.cooldown_cpu21.dtb]
type=RiscvTLB
eventq_index=0
size=64

[system.cooldown_cpu21.itb]
type=RiscvTLB
eventq_index=0
size=64

[system.cooldown_cpu21.tracer]
type=ExeTracer
eventq_index=0

[system.cooldown_cpu22]
type=NonCachingSimpleCPU
children=dtb itb tracer
activity_trace=false
branchPred=Null
checker=Null
clk_domain=system.cpu_clk_domain
cpu_id=22
default_p_state=UNDEFINED
do_checkpoint_insts=true
do_quiesce=true
do_statistics_insts=true
dtb=system.cooldown_cpu22.dtb
eventq_index=0
function_trace=false
function_trace_start=0
interrupts=system.cpu22.interrupts
isa=system.cpu22.isa
itb=system.cooldown_cpu22.itb
max_insts_all_threads=0
max_insts_any_thread=0
max_loads_all_threads=0
max_loads_any_thread=0
numThreads=1
p_state_clk_gate_bins=20
p_state_clk_gate_max=1000000000000
p_state_clk_gate_min=1000
power_gating_on_idle=false
power_model=
profile=0
progress_interval=0
pwr_gating_latency=300
simpoint_start_insts=
simulate_data_stalls=false
simulate_inst_stalls=false
socket_id=0
switched_out=true
syscallRetryLatency=10000
system=system
tracer=system.cooldown_cpu22.tracer
wait_for_remote_gdb=false
width=1
workload=system.cpu00.workload

[system.cooldown_cpu22.dtb]
type=RiscvTLB